Version 4
SHEET 1 880 680
WIRE 272 80 192 80
WIRE -16 128 -144 128
WIRE -16 144 -16 128
WIRE 192 160 192 80
WIRE -144 208 -144 128
WIRE 272 224 272 160
WIRE 464 224 272 224
WIRE 480 224 464 224
WIRE -16 256 -16 224
WIRE 192 288 192 240
WIRE 480 352 480 304
FLAG 192 288 0
FLAG 480 352 0
FLAG -16 256 0
FLAG -144 288 0
FLAG -144 128 PPM
FLAG 192 80 V_in
FLAG 464 224 V_sens
SYMBOL res -32 128 R0
SYMATTR InstName R1
SYMATTR Value 50k
SYMBOL voltage -144 192 R0
WINDOW 123 0 0 Left 0
WINDOW 39 0 0 Left 0
SYMATTR InstName V1
SYMATTR Value PWL file=sensvalues.txt
SYMBOL voltage 192 144 R0
WINDOW 123 0 0 Left 0
WINDOW 39 0 0 Left 0
SYMATTR InstName V2
SYMATTR Value 10V
SYMBOL res 256 64 R0
SYMATTR InstName R2
SYMATTR Value R=249564*PWRS(V(PPM),-0.569)
SYMBOL res 464 208 R0
WINDOW 0 37 35 Left 2
SYMATTR InstName R3
SYMATTR Value 5k
TEXT -144 368 Left 2 !.tran 0 25s 0 1ms
