Version 4
SHEET 1 880 680
WIRE 256 -48 208 -48
WIRE 400 -48 336 -48
WIRE 128 -16 -48 -16
WIRE 208 -16 208 -48
WIRE 208 -16 128 -16
WIRE -48 64 -48 -16
WIRE 128 64 64 64
WIRE 192 64 128 64
WIRE 400 96 400 -48
WIRE 64 112 64 64
WIRE 192 112 192 64
WIRE 256 112 192 112
WIRE 256 144 256 112
WIRE 336 144 256 144
WIRE -48 240 -48 144
WIRE 64 240 64 176
WIRE 64 240 -48 240
WIRE 192 240 192 192
WIRE 192 240 64 240
WIRE 288 240 192 240
WIRE 400 240 400 192
WIRE 400 240 288 240
WIRE 288 288 288 240
FLAG 400 -48 Vout
IOPIN 400 -48 Out
FLAG 288 288 0
SYMBOL voltage -48 48 R0
WINDOW 123 0 0 Left 0
WINDOW 39 0 0 Left 0
SYMATTR InstName V1
SYMATTR Value 9V
SYMBOL res 112 -32 R0
SYMATTR InstName R1
SYMATTR Value 1k
SYMBOL diode 48 112 R0
SYMATTR InstName D1
SYMATTR Value 1N4148
SYMBOL res 176 96 R0
SYMATTR InstName RV1
SYMATTR Value {R}
SYMBOL res 352 -64 R90
WINDOW 0 0 56 VBottom 2
WINDOW 3 32 56 VTop 2
SYMATTR InstName R3
SYMATTR Value 220
SYMBOL npn 336 96 R0
SYMATTR InstName Q1
SYMATTR Value BC547B
TEXT -82 250 Left 2 !.tran 0 15s 0 1ms
TEXT -104 280 Left 2 !.step param R 1 100 10
TEXT 80 -112 Left 2 ;Temperature Sensor
